<?xml version="1.0" encoding="UTF-8"?>

<!-- generated on 2023-06-28 01:11:53.588854 by osmWebWizard.py v1_17_0+0449-cfbc9c56519
<configuration>
    <net-file value="C:\Users\bingjiew\sumo\tools\2023-06-28-01-11-50\osm.net.xml.gz"/>
    <output-trip-file value="C:\Users\bingjiew\sumo\tools\2023-06-28-01-11-50\osm.passenger.trips.xml"/>
    <route-file value="C:\Users\bingjiew\sumo\tools\2023-06-28-01-11-50\osm.passenger.rou.xml"/>
    <prefix value="veh"/>
    <trip-attributes value="departLane=&quot;best&quot;"/>
    <fringe-start-attributes value="departSpeed=&quot;max&quot;"/>
    <lanes value="True"/>
    <fringe-factor value="5"/>
    <allow-fringe.min-length value="1000.0"/>
    <min-distance value="300.0"/>
    <min-distance.fringe value="10.0"/>
    <vehicle-class value="passenger"/>
    <remove-loops value="True"/>
    <via-edge-types value="highway.motorway,highway.motorway_link,highway.trunk_link,highway.primary_link,highway.secondary_link,highway.tertiary_link"/>
    <validate value="True"/>
    <insertion-density value="12.0"/>
</configuration>
-->

<!-- generated on 2023-06-28 01:11:53 by Eclipse SUMO duarouter Version 1.17.0
<configuration xmlns:xsi="http://www.w3.org/2001/XMLSchema-instance" xsi:noNamespaceSchemaLocation="http://sumo.dlr.de/xsd/duarouterConfiguration.xsd">

    <input>
        <net-file value="C:\Users\bingjiew\sumo\tools\2023-06-28-01-11-50\osm.net.xml.gz"/>
        <route-files value="C:\Users\bingjiew\sumo\tools\2023-06-28-01-11-50\osm.passenger.trips.xml"/>
    </input>

    <output>
        <output-file value="C:\Users\bingjiew\sumo\tools\2023-06-28-01-11-50\osm.passenger.trips.xml.tmp"/>
        <alternatives-output value="NUL"/>
        <write-trips value="true"/>
    </output>

    <processing>
        <remove-loops value="true"/>
    </processing>

    <time>
        <begin value="0.0"/>
        <end value="3600.0"/>
    </time>

    <report>
        <no-warnings value="true"/>
        <ignore-errors value="true"/>
        <no-step-log value="true"/>
    </report>

</configuration>
-->

<routes xmlns:xsi="http://www.w3.org/2001/XMLSchema-instance" xsi:noNamespaceSchemaLocation="http://sumo.dlr.de/xsd/routes_file.xsd">
    <vType id="veh_passenger" vClass="passenger"/>
    <trip id="veh0" type="veh_passenger" depart="0.00" departLane="best" departSpeed="max" from="23921793" to="-1125717921"/>
    <trip id="veh1" type="veh_passenger" depart="1.61" departLane="best" from="1029083899-AddedOnRampEdge" to="1027026947#0"/>
    <trip id="veh2" type="veh_passenger" depart="3.23" departLane="best" departSpeed="max" from="40801250" to="23959004"/>
    <trip id="veh3" type="veh_passenger" depart="4.84" departLane="best" from="83717490#0" to="165019828"/>
    <trip id="veh4" type="veh_passenger" depart="6.46" departLane="best" from="115575984#1" to="-1125737065"/>
    <trip id="veh5" type="veh_passenger" depart="8.07" departLane="best" from="1027026947#1-AddedOnRampEdge" to="27252285"/>
    <trip id="veh6" type="veh_passenger" depart="9.68" departLane="best" from="-1146048075" to="-88973828#1"/>
    <trip id="veh7" type="veh_passenger" depart="11.30" departLane="best" from="23957037" to="148730094#1"/>
    <trip id="veh8" type="veh_passenger" depart="12.91" departLane="best" from="1027026947#1-AddedOnRampEdge" to="159127465"/>
    <trip id="veh9" type="veh_passenger" depart="14.52" departLane="best" from="654095062#2" to="1020954426#2"/>
    <trip id="veh10" type="veh_passenger" depart="16.14" departLane="best" departSpeed="max" from="645732166" to="24212751#1"/>
    <trip id="veh11" type="veh_passenger" depart="17.75" departLane="best" from="1108065036" to="-807125975"/>
    <trip id="veh12" type="veh_passenger" depart="19.37" departLane="best" from="86114514#1" to="1108065036"/>
    <trip id="veh13" type="veh_passenger" depart="20.98" departLane="best" from="203993795#1" to="203201994#1"/>
    <trip id="veh14" type="veh_passenger" depart="22.59" departLane="best" from="77739761#1" to="188955910"/>
    <trip id="veh15" type="veh_passenger" depart="24.21" departLane="best" departSpeed="max" from="645732166" to="26630760"/>
    <trip id="veh16" type="veh_passenger" depart="25.82" departLane="best" from="1146048074" to="151957374#0"/>
    <trip id="veh17" type="veh_passenger" depart="27.44" departLane="best" from="776177318#2" to="203201949"/>
    <trip id="veh18" type="veh_passenger" depart="29.05" departLane="best" from="83473206#0" to="158806866#1-AddedOnRampEdge"/>
    <trip id="veh19" type="veh_passenger" depart="30.66" departLane="best" from="26610871" to="-115040535"/>
    <trip id="veh20" type="veh_passenger" depart="32.28" departLane="best" from="1168198280#1" to="1029083901#1"/>
    <trip id="veh21" type="veh_passenger" depart="33.89" departLane="best" from="-188955910" to="1027026947#2"/>
    <trip id="veh22" type="veh_passenger" depart="35.51" departLane="best" from="-26649138" to="1020954428#0"/>
    <trip id="veh23" type="veh_passenger" depart="37.12" departLane="best" departSpeed="max" from="23921793" to="112368684"/>
    <trip id="veh24" type="veh_passenger" depart="38.73" departLane="best" departSpeed="max" from="1125737065" to="-1020954425"/>
    <trip id="veh25" type="veh_passenger" depart="40.35" departLane="best" from="1029083898" to="-83740789"/>
    <trip id="veh26" type="veh_passenger" depart="41.96" departLane="best" from="23945360" to="190333940"/>
    <trip id="veh27" type="veh_passenger" depart="43.57" departLane="best" from="-86424655#0" to="26630459"/>
    <trip id="veh28" type="veh_passenger" depart="45.19" departLane="best" from="-83717490#0" to="1146049839#2"/>
    <trip id="veh29" type="veh_passenger" depart="46.80" departLane="best" departSpeed="max" from="88973828#0" to="203993793"/>
    <trip id="veh30" type="veh_passenger" depart="48.42" departLane="best" from="158806868#1" to="23959052#0"/>
    <trip id="veh31" type="veh_passenger" depart="50.03" departLane="best" from="77739754#1" to="1027026947#2"/>
    <trip id="veh32" type="veh_passenger" depart="51.64" departLane="best" from="1027026948" to="-1125737065"/>
    <trip id="veh33" type="veh_passenger" depart="53.26" departLane="best" departSpeed="max" from="10983877#0" to="1029083895"/>
    <trip id="veh34" type="veh_passenger" depart="54.87" departLane="best" from="1020954428#1" to="848302026"/>
    <trip id="veh35" type="veh_passenger" depart="56.49" departLane="best" from="-83571190#1" to="10975703#1"/>
    <trip id="veh36" type="veh_passenger" depart="58.10" departLane="best" from="23959011#0" to="115040560"/>
    <trip id="veh37" type="veh_passenger" depart="59.71" departLane="best" departSpeed="max" from="845269636" to="140581165"/>
    <trip id="veh38" type="veh_passenger" depart="61.33" departLane="best" from="1029083897#1" to="1027026949#1-AddedOnRampEdge"/>
    <trip id="veh39" type="veh_passenger" depart="62.94" departLane="best" from="147149344#1" to="1029083895"/>
    <trip id="veh40" type="veh_passenger" depart="64.56" departLane="best" from="190333939" to="-83473236"/>
    <trip id="veh41" type="veh_passenger" depart="66.17" departLane="best" from="115040560" to="1020954428#0"/>
    <trip id="veh42" type="veh_passenger" depart="67.78" departLane="best" from="159452907" to="147218620#0"/>
    <trip id="veh43" type="veh_passenger" depart="69.40" departLane="best" from="203993795#0" to="-115040535"/>
    <trip id="veh44" type="veh_passenger" depart="71.01" departLane="best" departSpeed="max" from="-47222459" to="203201988"/>
    <trip id="veh45" type="veh_passenger" depart="72.62" departLane="best" departSpeed="max" from="628914350#0" to="1164369189"/>
    <trip id="veh46" type="veh_passenger" depart="74.24" departLane="best" from="-158806861" to="1146049840"/>
    <trip id="veh47" type="veh_passenger" depart="75.85" departLane="best" from="159452907" to="147218620#2"/>
    <trip id="veh48" type="veh_passenger" depart="77.47" departLane="best" departSpeed="max" from="87174879#0" to="77739749#0"/>
    <trip id="veh49" type="veh_passenger" depart="79.08" departLane="best" departSpeed="max" from="-1027038410#2" to="26609634"/>
    <trip id="veh50" type="veh_passenger" depart="80.69" departLane="best" from="25848131" to="147293749"/>
    <trip id="veh51" type="veh_passenger" depart="82.31" departLane="best" from="1029083898" to="203993793"/>
    <trip id="veh52" type="veh_passenger" depart="83.92" departLane="best" departSpeed="max" from="-47222459" to="1027026947#5"/>
    <trip id="veh53" type="veh_passenger" depart="85.54" departLane="best" from="135345565" to="86114471"/>
    <trip id="veh54" type="veh_passenger" depart="87.15" departLane="best" from="-83571190#1" to="1029083895"/>
    <trip id="veh55" type="veh_passenger" depart="88.76" departLane="best" from="-147221751" to="-87174879#11"/>
    <trip id="veh56" type="veh_passenger" depart="90.38" departLane="best" departSpeed="max" from="845269636" to="77739761#0"/>
    <trip id="veh57" type="veh_passenger" depart="91.99" departLane="best" from="47222455" to="203201994#1"/>
    <trip id="veh58" type="veh_passenger" depart="93.61" departLane="best" from="203993793" to="85115629"/>
    <trip id="veh59" type="veh_passenger" depart="95.22" departLane="best" from="47220590" to="-147391148"/>
    <trip id="veh60" type="veh_passenger" depart="96.83" departLane="best" from="-52869469" to="26630459"/>
    <trip id="veh61" type="veh_passenger" depart="98.45" departLane="best" from="-1020954425" to="10983877#1"/>
    <trip id="veh62" type="veh_passenger" depart="100.06" departLane="best" from="-10990554#1" to="83717479"/>
    <trip id="veh63" type="veh_passenger" depart="101.67" departLane="best" from="10977472" to="-128851166#1"/>
    <trip id="veh64" type="veh_passenger" depart="103.29" departLane="best" from="83715516#0" to="85115626"/>
    <trip id="veh65" type="veh_passenger" depart="104.90" departLane="best" from="203201956#1" to="147149338#1"/>
    <trip id="veh66" type="veh_passenger" depart="106.52" departLane="best" from="48258392#0" to="47220583#3"/>
    <trip id="veh67" type="veh_passenger" depart="108.13" departLane="best" from="-47222455" to="-36256810"/>
    <trip id="veh68" type="veh_passenger" depart="109.74" departLane="best" from="147149344#0" to="151957374#0"/>
    <trip id="veh69" type="veh_passenger" depart="111.36" departLane="best" from="1029083897#1" to="26718729"/>
    <trip id="veh70" type="veh_passenger" depart="112.97" departLane="best" from="115575984#2" to="-1020954426#0"/>
    <trip id="veh71" type="veh_passenger" depart="114.59" departLane="best" from="154416144" to="26630760"/>
    <trip id="veh72" type="veh_passenger" depart="116.20" departLane="best" from="1029083897#1" to="10975703#0"/>
    <trip id="veh73" type="veh_passenger" depart="117.81" departLane="best" from="159452907" to="203993889"/>
    <trip id="veh74" type="veh_passenger" depart="119.43" departLane="best" from="1168198280#1" to="147218620#2"/>
    <trip id="veh75" type="veh_passenger" depart="121.04" departLane="best" from="83473247" to="1027026947#1"/>
    <trip id="veh76" type="veh_passenger" depart="122.66" departLane="best" departSpeed="max" from="11000973#0" to="159127465"/>
    <trip id="veh77" type="veh_passenger" depart="124.27" departLane="best" from="1027026948" to="1020954428#1"/>
    <trip id="veh78" type="veh_passenger" depart="125.88" departLane="best" from="-159219959#1" to="203201988"/>
    <trip id="veh79" type="veh_passenger" depart="127.50" departLane="best" from="1027026948" to="83473247"/>
    <trip id="veh80" type="veh_passenger" depart="129.11" departLane="best" from="780058002" to="-154416144"/>
    <trip id="veh81" type="veh_passenger" depart="130.72" departLane="best" from="1027026949#1-AddedOnRampEdge" to="23945360"/>
    <trip id="veh82" type="veh_passenger" depart="132.34" departLane="best" from="1027026947#0" to="-40801250"/>
    <trip id="veh83" type="veh_passenger" depart="133.95" departLane="best" departSpeed="max" from="845604602#0" to="158806866#0"/>
    <trip id="veh84" type="veh_passenger" depart="135.57" departLane="best" from="159452906" to="47220587#2-AddedOffRampEdge"/>
    <trip id="veh85" type="veh_passenger" depart="137.18" departLane="best" departSpeed="max" from="645732166" to="87656628#1"/>
    <trip id="veh86" type="veh_passenger" depart="138.79" departLane="best" from="23959052#1" to="47220583#1"/>
    <trip id="veh87" type="veh_passenger" depart="140.41" departLane="best" from="115575984#2" to="140581165"/>
    <trip id="veh88" type="veh_passenger" depart="142.02" departLane="best" departSpeed="max" from="297918473" to="23958992#1"/>
    <trip id="veh89" type="veh_passenger" depart="143.64" departLane="best" departSpeed="max" from="88973828#0" to="-203201994#0"/>
    <trip id="veh90" type="veh_passenger" depart="145.25" departLane="best" from="-115411973#0" to="1108065036"/>
    <trip id="veh91" type="veh_passenger" depart="146.86" departLane="best" from="83473206#0" to="1027036484"/>
    <trip id="veh92" type="veh_passenger" depart="148.48" departLane="best" departSpeed="max" from="1020851362#0" to="133433466"/>
    <trip id="veh93" type="veh_passenger" depart="150.09" departLane="best" from="115575973#3" to="1029083897#1"/>
    <trip id="veh94" type="veh_passenger" depart="151.71" departLane="best" departSpeed="max" from="1027452233#0" to="83717461"/>
    <trip id="veh95" type="veh_passenger" depart="153.32" departLane="best" from="-120756769" to="77739749#0"/>
    <trip id="veh96" type="veh_passenger" depart="154.93" departLane="best" from="1113583565" to="-115411973#1"/>
    <trip id="veh97" type="veh_passenger" depart="156.55" departLane="best" from="954819646" to="70944644"/>
    <trip id="veh98" type="veh_passenger" depart="158.16" departLane="best" departSpeed="max" from="87174879#0" to="83717461"/>
    <trip id="veh99" type="veh_passenger" depart="159.77" departLane="best" from="77739762" to="-83715517#2"/>
    <trip id="veh100" type="veh_passenger" depart="161.39" departLane="best" from="147218602" to="-1020954426#1"/>
    <trip id="veh101" type="veh_passenger" depart="163.00" departLane="best" from="115040560" to="-137569762"/>
    <trip id="veh102" type="veh_passenger" depart="164.62" departLane="best" from="1146049839#0" to="87174881"/>
    <trip id="veh103" type="veh_passenger" depart="166.23" departLane="best" from="1029083897#1" to="47220587#2-AddedOffRampEdge"/>
    <trip id="veh104" type="veh_passenger" depart="167.84" departLane="best" from="135345565" to="1164369189"/>
    <trip id="veh105" type="veh_passenger" depart="169.46" departLane="best" from="1123278918" to="159452907"/>
    <trip id="veh106" type="veh_passenger" depart="171.07" departLane="best" from="158806868#1" to="26605797#1"/>
    <trip id="veh107" type="veh_passenger" depart="172.69" departLane="best" departSpeed="max" from="70944642#2" to="1029111781"/>
    <trip id="veh108" type="veh_passenger" depart="174.30" departLane="best" departSpeed="max" from="87174879#0" to="-158806868#1"/>
    <trip id="veh109" type="veh_passenger" depart="175.91" departLane="best" from="154416146#1" to="333538446"/>
    <trip id="veh110" type="veh_passenger" depart="177.53" departLane="best" from="-148730093" to="159127465"/>
    <trip id="veh111" type="veh_passenger" depart="179.14" departLane="best" from="147293747" to="765907327#1"/>
    <trip id="veh112" type="veh_passenger" depart="180.75" departLane="best" departSpeed="max" from="-83717479" to="1027026948"/>
    <trip id="veh113" type="veh_passenger" depart="182.37" departLane="best" from="-188955910" to="-87174879#11"/>
    <trip id="veh114" type="veh_passenger" depart="183.98" departLane="best" departSpeed="max" from="203201986" to="23959004"/>
    <trip id="veh115" type="veh_passenger" depart="185.60" departLane="best" from="1027026949#1" to="-36256810"/>
    <trip id="veh116" type="veh_passenger" depart="187.21" departLane="best" from="83715519" to="1027026949#1-AddedOnRampEdge"/>
    <trip id="veh117" type="veh_passenger" depart="188.82" departLane="best" from="203201955" to="203201949"/>
    <trip id="veh118" type="veh_passenger" depart="190.44" departLane="best" from="115575973#4" to="159127465"/>
    <trip id="veh119" type="veh_passenger" depart="192.05" departLane="best" from="153286060" to="83717490#1"/>
    <trip id="veh120" type="veh_passenger" depart="193.67" departLane="best" from="1020954426#1" to="26215953#1"/>
    <trip id="veh121" type="veh_passenger" depart="195.28" departLane="best" from="1027036484" to="115040560"/>
    <trip id="veh122" type="veh_passenger" depart="196.89" departLane="best" from="24212369" to="1081327661"/>
    <trip id="veh123" type="veh_passenger" depart="198.51" departLane="best" departSpeed="max" from="10983877#0" to="47220583#0"/>
    <trip id="veh124" type="veh_passenger" depart="200.12" departLane="best" from="159219959#0" to="140581165"/>
    <trip id="veh125" type="veh_passenger" depart="201.74" departLane="best" from="203201914" to="1020954426#0"/>
    <trip id="veh126" type="veh_passenger" depart="203.35" departLane="best" from="1029083897#1" to="83717479"/>
    <trip id="veh127" type="veh_passenger" depart="204.96" departLane="best" from="83715516#1" to="77739763"/>
    <trip id="veh128" type="veh_passenger" depart="206.58" departLane="best" from="77739749#0" to="25848131"/>
    <trip id="veh129" type="veh_passenger" depart="208.19" departLane="best" from="203993795#0" to="87174881"/>
    <trip id="veh130" type="veh_passenger" depart="209.80" departLane="best" from="23959004" to="-1020954426#2"/>
    <trip id="veh131" type="veh_passenger" depart="211.42" departLane="best" from="70944641#0" to="1081327661"/>
    <trip id="veh132" type="veh_passenger" depart="213.03" departLane="best" from="23959052#0" to="1121648921"/>
    <trip id="veh133" type="veh_passenger" depart="214.65" departLane="best" from="-765907327#0" to="-297918473"/>
    <trip id="veh134" type="veh_passenger" depart="216.26" departLane="best" from="47222455" to="151957374#0"/>
    <trip id="veh135" type="veh_passenger" depart="217.87" departLane="best" from="1029083899" to="188955910"/>
    <trip id="veh136" type="veh_passenger" depart="219.49" departLane="best" from="27251912" to="-88973828#2"/>
    <trip id="veh137" type="veh_passenger" depart="221.10" departLane="best" departSpeed="max" from="23921793" to="1029083895"/>
    <trip id="veh138" type="veh_passenger" depart="222.72" departLane="best" from="147218603" to="83473247"/>
    <trip id="veh139" type="veh_passenger" depart="224.33" departLane="best" from="77739761#1" to="780058002"/>
    <trip id="veh140" type="veh_passenger" depart="225.94" departLane="best" from="115575984#2" to="1029083897#0-AddedOnRampEdge"/>
    <trip id="veh141" type="veh_passenger" depart="227.56" departLane="best" from="-1020954426#0" to="47220583#3"/>
    <trip id="veh142" type="veh_passenger" depart="229.17" departLane="best" departSpeed="max" from="23921793" to="1029083895"/>
    <trip id="veh143" type="veh_passenger" depart="230.79" departLane="best" from="47220583#0" to="151957374#0"/>
    <trip id="veh144" type="veh_passenger" depart="232.40" departLane="best" from="1164369190" to="-1029083901#0"/>
    <trip id="veh145" type="veh_passenger" depart="234.01" departLane="best" from="-159452939#0" to="1089985681"/>
    <trip id="veh146" type="veh_passenger" depart="235.63" departLane="best" departSpeed="max" from="83737610" to="148730094#1"/>
    <trip id="veh147" type="veh_passenger" depart="237.24" departLane="best" from="77739749#0" to="159127465"/>
    <trip id="veh148" type="veh_passenger" depart="238.85" departLane="best" from="-83473206#1" to="-36256810"/>
    <trip id="veh149" type="veh_passenger" depart="240.47" departLane="best" departSpeed="max" from="10983877#0" to="83473242#1"/>
    <trip id="veh150" type="veh_passenger" depart="242.08" departLane="best" from="634486548" to="77739749#0"/>
    <trip id="veh151" type="veh_passenger" depart="243.70" departLane="best" departSpeed="max" from="83737610" to="1020954425"/>
    <trip id="veh152" type="veh_passenger" depart="245.31" departLane="best" departSpeed="max" from="1027452233#0" to="-203993795#1"/>
    <trip id="veh153" type="veh_passenger" depart="246.92" departLane="best" departSpeed="max" from="628914350#0" to="1089985681"/>
    <trip id="veh154" type="veh_passenger" depart="248.54" departLane="best" from="115415287" to="203201949"/>
    <trip id="veh155" type="veh_passenger" depart="250.15" departLane="best" departSpeed="max" from="70944642#2" to="83717479"/>
    <trip id="veh156" type="veh_passenger" depart="251.77" departLane="best" from="83473226" to="86788116"/>
    <trip id="veh157" type="veh_passenger" depart="253.38" departLane="best" from="-70944637" to="77739786"/>
    <trip id="veh158" type="veh_passenger" depart="254.99" departLane="best" departSpeed="max" from="-112368684" to="27110781"/>
    <trip id="veh159" type="veh_passenger" depart="256.61" departLane="best" from="10990554#3" to="83717479"/>
    <trip id="veh160" type="veh_passenger" depart="258.22" departLane="best" from="645485030" to="77739749#1"/>
    <trip id="veh161" type="veh_passenger" depart="259.84" departLane="best" from="-70944637" to="1029083895"/>
    <trip id="veh162" type="veh_passenger" depart="261.45" departLane="best" departSpeed="max" from="628914350#0" to="-26558421"/>
    <trip id="veh163" type="veh_passenger" depart="263.06" departLane="best" from="190333939" to="77739748"/>
    <trip id="veh164" type="veh_passenger" depart="264.68" departLane="best" from="47220587#0" to="-1146048075"/>
    <trip id="veh165" type="veh_passenger" depart="266.29" departLane="best" from="140779092#0" to="1090006469"/>
    <trip id="veh166" type="veh_passenger" depart="267.90" departLane="best" from="634486548" to="1027026947#1"/>
    <trip id="veh167" type="veh_passenger" depart="269.52" departLane="best" departSpeed="max" from="-112368684" to="-88973828#1"/>
    <trip id="veh168" type="veh_passenger" depart="271.13" departLane="best" from="10990554#0" to="77739749#1"/>
    <trip id="veh170" type="veh_passenger" depart="274.36" departLane="best" departSpeed="max" from="23921793" to="115411973#0"/>
    <trip id="veh171" type="veh_passenger" depart="275.97" departLane="best" departSpeed="max" from="88973828#0" to="147293749"/>
    <trip id="veh172" type="veh_passenger" depart="277.59" departLane="best" from="-159452939#0" to="-297918473"/>
    <trip id="veh173" type="veh_passenger" depart="279.20" departLane="best" from="86424644" to="1029083895"/>
    <trip id="veh174" type="veh_passenger" depart="280.82" departLane="best" departSpeed="max" from="-47222459" to="1027026947#5"/>
    <trip id="veh175" type="veh_passenger" depart="282.43" departLane="best" departSpeed="max" from="297918473" to="10975703#0"/>
    <trip id="veh176" type="veh_passenger" depart="284.04" departLane="best" from="-203201990#0" to="147218620#0-AddedOffRampEdge"/>
    <trip id="veh177" type="veh_passenger" depart="285.66" departLane="best" from="1146049844" to="158806866#1-AddedOnRampEdge"/>
    <trip id="veh178" type="veh_passenger" depart="287.27" departLane="best" from="1027452233#1" to="26215953#1"/>
    <trip id="veh179" type="veh_passenger" depart="288.89" departLane="best" from="1020954425" to="83717461"/>
    <trip id="veh180" type="veh_passenger" depart="290.50" departLane="best" from="154416144" to="26609634"/>
    <trip id="veh181" type="veh_passenger" depart="292.11" departLane="best" from="47220583#0-AddedOnRampEdge" to="1128420314"/>
    <trip id="veh182" type="veh_passenger" depart="293.73" departLane="best" departSpeed="max" from="1125737065" to="-153286060"/>
    <trip id="veh183" type="veh_passenger" depart="295.34" departLane="best" from="-23959052#1" to="10986332-AddedOffRampEdge"/>
    <trip id="veh184" type="veh_passenger" depart="296.95" departLane="best" departSpeed="max" from="10983877#0" to="765907327#1"/>
    <trip id="veh185" type="veh_passenger" depart="298.57" departLane="best" from="147218603" to="1081327661"/>
    <trip id="veh186" type="veh_passenger" depart="300.18" departLane="best" departSpeed="max" from="10983877#0" to="115575973#2"/>
    <trip id="veh187" type="veh_passenger" depart="301.80" departLane="best" from="-115411973#0" to="1029111781"/>
    <trip id="veh188" type="veh_passenger" depart="303.41" departLane="best" from="70944639#2" to="115575984#2"/>
    <trip id="veh189" type="veh_passenger" depart="305.02" departLane="best" from="85115626" to="23959011#0"/>
    <trip id="veh190" type="veh_passenger" depart="306.64" departLane="best" departSpeed="max" from="83737610" to="203201949"/>
    <trip id="veh191" type="veh_passenger" depart="308.25" departLane="best" from="10975703#0" to="148730096#1"/>
    <trip id="veh192" type="veh_passenger" depart="309.87" departLane="best" from="-1020954425" to="1029083899-AddedOnRampEdge"/>
    <trip id="veh193" type="veh_passenger" depart="311.48" departLane="best" from="1164369190" to="159127465"/>
    <trip id="veh194" type="veh_passenger" depart="313.09" departLane="best" from="23959004" to="140581165"/>
    <trip id="veh195" type="veh_passenger" depart="314.71" departLane="best" from="120060160#0" to="1020954426#1"/>
    <trip id="veh196" type="veh_passenger" depart="316.32" departLane="best" from="147149344#0" to="83473244"/>
    <trip id="veh197" type="veh_passenger" depart="317.94" departLane="best" from="634486548" to="-83719544"/>
    <trip id="veh198" type="veh_passenger" depart="319.55" departLane="best" from="-203201956#0" to="147218620#2"/>
    <trip id="veh199" type="veh_passenger" depart="321.16" departLane="best" departSpeed="max" from="23921793" to="10997507"/>
    <trip id="veh200" type="veh_passenger" depart="322.78" departLane="best" from="70944641#0" to="47220583#0"/>
    <trip id="veh201" type="veh_passenger" depart="324.39" departLane="best" from="24212369" to="1027026947#1"/>
    <trip id="veh202" type="veh_passenger" depart="326.00" departLane="best" departSpeed="max" from="1020851362#0" to="-1125717921"/>
    <trip id="veh203" type="veh_passenger" depart="327.62" departLane="best" departSpeed="max" from="1027452233#0" to="140779093#1"/>
    <trip id="veh204" type="veh_passenger" depart="329.23" departLane="best" from="77739762" to="-158806861"/>
    <trip id="veh205" type="veh_passenger" depart="330.85" departLane="best" from="115575973#3" to="203201988"/>
    <trip id="veh206" type="veh_passenger" depart="332.46" departLane="best" departSpeed="max" from="1020851362#0" to="24212713#1"/>
    <trip id="veh208" type="veh_passenger" depart="335.69" departLane="best" from="23959011#0" to="1020954426#1"/>
    <trip id="veh209" type="veh_passenger" depart="337.30" departLane="best" from="1027026947#2" to="47220583#3"/>
    <trip id="veh210" type="veh_passenger" depart="338.92" departLane="best" from="-47222455" to="1164369190"/>
    <trip id="veh211" type="veh_passenger" depart="340.53" departLane="best" from="87656628#1" to="1027026948"/>
    <trip id="veh212" type="veh_passenger" depart="342.14" departLane="best" departSpeed="max" from="153238947" to="-115411973#0"/>
    <trip id="veh213" type="veh_passenger" depart="343.76" departLane="best" departSpeed="max" from="1027452233#0" to="765907327#1"/>
    <trip id="veh214" type="veh_passenger" depart="345.37" departLane="best" from="135345566" to="47222459"/>
    <trip id="veh215" type="veh_passenger" depart="346.98" departLane="best" from="24119310#0" to="87656628#0"/>
    <trip id="veh216" type="veh_passenger" depart="348.60" departLane="best" departSpeed="max" from="203201986" to="85115629"/>
    <trip id="veh217" type="veh_passenger" depart="350.21" departLane="best" from="165019830" to="-159220095#1"/>
    <trip id="veh218" type="veh_passenger" depart="351.83" departLane="best" from="115575973#0" to="148730094#0"/>
    <trip id="veh219" type="veh_passenger" depart="353.44" departLane="best" departSpeed="max" from="83737610" to="27607279"/>
    <trip id="veh220" type="veh_passenger" depart="355.05" departLane="best" from="147149344#1" to="147149338#0"/>
    <trip id="veh221" type="veh_passenger" depart="356.67" departLane="best" departSpeed="max" from="1027452233#0" to="-203201956#0"/>
    <trip id="veh222" type="veh_passenger" depart="358.28" departLane="best" from="47222455" to="147218620#2"/>
    <trip id="veh223" type="veh_passenger" depart="359.90" departLane="best" from="23921313#0" to="1029083897#0-AddedOnRampEdge"/>
    <trip id="veh224" type="veh_passenger" depart="361.51" departLane="best" from="-165019828" to="1029083899-AddedOnRampEdge"/>
    <trip id="veh225" type="veh_passenger" depart="363.12" departLane="best" from="1029083899" to="10977472"/>
    <trip id="veh226" type="veh_passenger" depart="364.74" departLane="best" from="154416146#0" to="-47222455"/>
    <trip id="veh227" type="veh_passenger" depart="366.35" departLane="best" from="1027026948" to="24212369"/>
    <trip id="veh228" type="veh_passenger" depart="367.97" departLane="best" from="26610880" to="147221751"/>
    <trip id="veh229" type="veh_passenger" depart="369.58" departLane="best" from="115575973#4" to="-923329546"/>
    <trip id="veh230" type="veh_passenger" depart="371.19" departLane="best" from="115575984#0" to="83473247"/>
    <trip id="veh231" type="veh_passenger" depart="372.81" departLane="best" from="190333935" to="24212713#1"/>
    <trip id="veh232" type="veh_passenger" depart="374.42" departLane="best" from="77739786" to="47220583#3"/>
    <trip id="veh233" type="veh_passenger" depart="376.03" departLane="best" from="1146049841" to="-1020954426#1"/>
    <trip id="veh234" type="veh_passenger" depart="377.65" departLane="best" from="1121648921" to="47220583#0-AddedOnRampEdge"/>
    <trip id="veh235" type="veh_passenger" depart="379.26" departLane="best" from="77739763" to="86114471"/>
    <trip id="veh236" type="veh_passenger" depart="380.88" departLane="best" from="115575984#0" to="333538446"/>